<?xml version="1.0" encoding="utf-8"?>
<!DOCTYPE population SYSTEM "http://www.matsim.org/files/dtd/population_v6.dtd">

<population>

    <!-- ====================================================================== -->
    <person id="0">
        <!--   <attributes>
               <attribute name="Age" class="java.lang.String" >86</attribute>
               <attribute name="AgentId" class="java.lang.String" >202021028P6295</attribute>
               <attribute name="Archetype" class="java.lang.String" >Worried.Waverer</attribute>
               <attribute name="Archetypes.Age" class="java.lang.String" >75 years +</attribute>
               <attribute name="Archetypes.Household" class="java.lang.String" >Ssingle person without dependents living at home</attribute>
               <attribute name="BDIAgentType" class="java.lang.String" >io.github.agentsoz.ees.agents.archetype.WorriedWaverer</attribute>
               <attribute name="EZI_ADD" class="java.lang.String" >164 BACK CEMETERY ROAD MALDON 3463</attribute>
               <attribute name="EvacLocationPreference" class="java.lang.String" >Elphinstone,262869,5890813</attribute>
               <attribute name="Gender" class="java.lang.String" >Male</attribute>
               <attribute name="Geographical.Coordinate" class="java.lang.String" >[8.6655, 50.1284]</attribute>
               <attribute name="HasDependents" class="java.lang.String" >false</attribute>
               <attribute name="HasDependentsAtLocation" class="java.lang.String" ></attribute>
               <attribute name="HouseholdId" class="java.lang.String" >202021028H5</attribute>
               <attribute name="Id" class="java.lang.String" >10036</attribute>
               <attribute name="ImpactFromFireDangerIndexRating" class="java.lang.String" >0</attribute>
               <attribute name="ImpactFromImmersionInSmoke" class="java.lang.String" >0.2</attribute>
               <attribute name="ImpactFromMessageAdvice" class="java.lang.String" >0.088</attribute>
               <attribute name="ImpactFromMessageEmergencyWarning" class="java.lang.String" >0.313</attribute>
               <attribute name="ImpactFromMessageEvacuateNow" class="java.lang.String" >0.311</attribute>
               <attribute name="ImpactFromMessageRespondersAttending" class="java.lang.String" >-0.1</attribute>
               <attribute name="ImpactFromMessageWatchAndAct" class="java.lang.String" >0.163</attribute>
               <attribute name="ImpactFromSocialMessage" class="java.lang.String" >0.4</attribute>
               <attribute name="ImpactFromVisibleEmbers" class="java.lang.String" >0.4</attribute>
               <attribute name="ImpactFromVisibleFire" class="java.lang.String" >0.5</attribute>
               <attribute name="ImpactFromVisibleResponders" class="java.lang.String" >0.3</attribute>
               <attribute name="ImpactFromVisibleSmoke" class="java.lang.String" >0.1</attribute>
               <attribute name="InvacLocationPreference" class="java.lang.String" >Castlemaine,252140,5894312</attribute>
               <attribute name="LagTimeInMinsForFinalResponse" class="java.lang.String" >17.32</attribute>
               <attribute name="LagTimeInMinsForInitialResponse" class="java.lang.String" >15.45</attribute>
               <attribute name="PrimaryFamilyType" class="java.lang.String" >LONE_PERSON</attribute>
               <attribute name="ResponseThresholdFinal" class="java.lang.String" >0.61</attribute>
               <attribute name="ResponseThresholdInitial" class="java.lang.String" >0.31</attribute>
               <attribute name="SA1_7DIGCODE" class="java.lang.String" >2102817</attribute>
               <attribute name="SA2_MAINCODE" class="java.lang.String" >202021028</attribute>
               <attribute name="WillGoHomeAfterVisitingDependents" class="java.lang.String" >false</attribute>
               <attribute name="WillGoHomeBeforeLeaving" class="java.lang.String" >true</attribute>
               <attribute name="WillStay" class="java.lang.String" >false</attribute>
           </attributes>-->
        <plan selected="yes">
            <activity type="home" x="476693.70" y="5553399.74" end_time="23:59:59" >
            </activity>
            <leg mode="car">
            </leg>
            <activity type="home" x="476693.70" y="5553399.74" >
            </activity>
        </plan>

    </person>

    <!-- ====================================================================== -->

    <person id="1">
     <!--   <attributes>
            <attribute name="Age" class="java.lang.String" >86</attribute>
            <attribute name="AgentId" class="java.lang.String" >202021028P6295</attribute>
            <attribute name="Archetype" class="java.lang.String" >Worried.Waverer</attribute>
            <attribute name="Archetypes.Age" class="java.lang.String" >75 years +</attribute>
            <attribute name="Archetypes.Household" class="java.lang.String" >Ssingle person without dependents living at home</attribute>
            <attribute name="BDIAgentType" class="java.lang.String" >io.github.agentsoz.ees.agents.archetype.WorriedWaverer</attribute>
            <attribute name="EZI_ADD" class="java.lang.String" >164 BACK CEMETERY ROAD MALDON 3463</attribute>
            <attribute name="EvacLocationPreference" class="java.lang.String" >Elphinstone,262869,5890813</attribute>
            <attribute name="Gender" class="java.lang.String" >Male</attribute>
            <attribute name="Geographical.Coordinate" class="java.lang.String" >[8.6655, 50.1284]</attribute>
            <attribute name="HasDependents" class="java.lang.String" >false</attribute>
            <attribute name="HasDependentsAtLocation" class="java.lang.String" ></attribute>
            <attribute name="HouseholdId" class="java.lang.String" >202021028H5</attribute>
            <attribute name="Id" class="java.lang.String" >10036</attribute>
            <attribute name="ImpactFromFireDangerIndexRating" class="java.lang.String" >0</attribute>
            <attribute name="ImpactFromImmersionInSmoke" class="java.lang.String" >0.2</attribute>
            <attribute name="ImpactFromMessageAdvice" class="java.lang.String" >0.088</attribute>
            <attribute name="ImpactFromMessageEmergencyWarning" class="java.lang.String" >0.313</attribute>
            <attribute name="ImpactFromMessageEvacuateNow" class="java.lang.String" >0.311</attribute>
            <attribute name="ImpactFromMessageRespondersAttending" class="java.lang.String" >-0.1</attribute>
            <attribute name="ImpactFromMessageWatchAndAct" class="java.lang.String" >0.163</attribute>
            <attribute name="ImpactFromSocialMessage" class="java.lang.String" >0.4</attribute>
            <attribute name="ImpactFromVisibleEmbers" class="java.lang.String" >0.4</attribute>
            <attribute name="ImpactFromVisibleFire" class="java.lang.String" >0.5</attribute>
            <attribute name="ImpactFromVisibleResponders" class="java.lang.String" >0.3</attribute>
            <attribute name="ImpactFromVisibleSmoke" class="java.lang.String" >0.1</attribute>
            <attribute name="InvacLocationPreference" class="java.lang.String" >Castlemaine,252140,5894312</attribute>
            <attribute name="LagTimeInMinsForFinalResponse" class="java.lang.String" >17.32</attribute>
            <attribute name="LagTimeInMinsForInitialResponse" class="java.lang.String" >15.45</attribute>
            <attribute name="PrimaryFamilyType" class="java.lang.String" >LONE_PERSON</attribute>
            <attribute name="ResponseThresholdFinal" class="java.lang.String" >0.61</attribute>
            <attribute name="ResponseThresholdInitial" class="java.lang.String" >0.31</attribute>
            <attribute name="SA1_7DIGCODE" class="java.lang.String" >2102817</attribute>
            <attribute name="SA2_MAINCODE" class="java.lang.String" >202021028</attribute>
            <attribute name="WillGoHomeAfterVisitingDependents" class="java.lang.String" >false</attribute>
            <attribute name="WillGoHomeBeforeLeaving" class="java.lang.String" >true</attribute>
            <attribute name="WillStay" class="java.lang.String" >false</attribute>
        </attributes>-->
        <plan selected="yes">
            <activity type="home" x="476411.90963429067" y="5552419.709277404" end_time="23:59:59" >
            </activity>
            <leg mode="car">
            </leg>
            <activity type="home" x="476411.90963429067" y="5552419.709277404" >
            </activity>
        </plan>

    </person>

    <!-- ====================================================================== -->

    <person id="2">
       <!-- <attributes>
            <attribute name="Age" class="java.lang.String" >87</attribute>
            <attribute name="AgentId" class="java.lang.String" >202021028P6313</attribute>
            <attribute name="Archetype" class="java.lang.String" >Worried.Waverer</attribute>
            <attribute name="Archetypes.Age" class="java.lang.String" >75 years +</attribute>
            <attribute name="Archetypes.Household" class="java.lang.String" >Ssingle person without dependents living at home</attribute>
            <attribute name="BDIAgentType" class="java.lang.String" >io.github.agentsoz.ees.agents.archetype.WorriedWaverer</attribute>
            <attribute name="EZI_ADD" class="java.lang.String" >1/11 HOSPITAL STREET MALDON 3463</attribute>
            <attribute name="EvacLocationPreference" class="java.lang.String" >Elphinstone,262869,5890813</attribute>
            <attribute name="Gender" class="java.lang.String" >Male</attribute>
            <attribute name="Geographical.Coordinate" class="java.lang.String" >[8.66964, 50.12563]</attribute>
            <attribute name="HasDependents" class="java.lang.String" >false</attribute>
            <attribute name="HasDependentsAtLocation" class="java.lang.String" ></attribute>
            <attribute name="HouseholdId" class="java.lang.String" >202021028H23</attribute>
            <attribute name="Id" class="java.lang.String" >10044</attribute>
            <attribute name="ImpactFromFireDangerIndexRating" class="java.lang.String" >0</attribute>
            <attribute name="ImpactFromImmersionInSmoke" class="java.lang.String" >0.2</attribute>
            <attribute name="ImpactFromMessageAdvice" class="java.lang.String" >0.088</attribute>
            <attribute name="ImpactFromMessageEmergencyWarning" class="java.lang.String" >0.313</attribute>
            <attribute name="ImpactFromMessageEvacuateNow" class="java.lang.String" >0.311</attribute>
            <attribute name="ImpactFromMessageRespondersAttending" class="java.lang.String" >-0.1</attribute>
            <attribute name="ImpactFromMessageWatchAndAct" class="java.lang.String" >0.163</attribute>
            <attribute name="ImpactFromSocialMessage" class="java.lang.String" >0.4</attribute>
            <attribute name="ImpactFromVisibleEmbers" class="java.lang.String" >0.4</attribute>
            <attribute name="ImpactFromVisibleFire" class="java.lang.String" >0.5</attribute>
            <attribute name="ImpactFromVisibleResponders" class="java.lang.String" >0.3</attribute>
            <attribute name="ImpactFromVisibleSmoke" class="java.lang.String" >0.1</attribute>
            <attribute name="InvacLocationPreference" class="java.lang.String" >Castlemaine,252140,5894312</attribute>
            <attribute name="LagTimeInMinsForFinalResponse" class="java.lang.String" >21.12</attribute>
            <attribute name="LagTimeInMinsForInitialResponse" class="java.lang.String" >24.7</attribute>
            <attribute name="PrimaryFamilyType" class="java.lang.String" >LONE_PERSON</attribute>
            <attribute name="ResponseThresholdFinal" class="java.lang.String" >0.66</attribute>
            <attribute name="ResponseThresholdInitial" class="java.lang.String" >0.16</attribute>
            <attribute name="SA1_7DIGCODE" class="java.lang.String" >2102810</attribute>
            <attribute name="SA2_MAINCODE" class="java.lang.String" >202021028</attribute>
            <attribute name="WillGoHomeAfterVisitingDependents" class="java.lang.String" >true</attribute>
            <attribute name="WillGoHomeBeforeLeaving" class="java.lang.String" >true</attribute>
            <attribute name="WillStay" class="java.lang.String" >false</attribute>
        </attributes>-->
        <plan selected="yes">
            <activity type="home" x="476593.32115363394" y="5553317.19412722" end_time="23:59:59" >
            </activity>
            <leg mode="car">
            </leg>
            <activity type="home" x="476593.32115363394" y="5553317.19412722" >
            </activity>
        </plan>

    </person>

    <!-- ====================================================================== -->

    <person id="3">
    <!--   <attributes>
          <attribute name="Age" class="java.lang.String" >83</attribute>
          <attribute name="AgentId" class="java.lang.String" >202021028P6324</attribute>
          <attribute name="Archetype" class="java.lang.String" >Worried.Waverer</attribute>
          <attribute name="Archetypes.Age" class="java.lang.String" >75 years +</attribute>
          <attribute name="Archetypes.Household" class="java.lang.String" >Ssingle person without dependents living at home</attribute>
          <attribute name="BDIAgentType" class="java.lang.String" >io.github.agentsoz.ees.agents.archetype.WorriedWaverer</attribute>
          <attribute name="EZI_ADD" class="java.lang.String" >53 FRANKLIN STREET MALDON 3463</attribute>
          <attribute name="EvacLocationPreference" class="java.lang.String" >Elphinstone,262869,5890813</attribute>
          <attribute name="Gender" class="java.lang.String" >Male</attribute>
          <attribute name="Geographical.Coordinate" class="java.lang.String" >[8.66594, 50.12501]</attribute>
          <attribute name="HasDependents" class="java.lang.String" >false</attribute>
          <attribute name="HasDependentsAtLocation" class="java.lang.String" ></attribute>
          <attribute name="HouseholdId" class="java.lang.String" >202021028H34</attribute>
          <attribute name="Id" class="java.lang.String" >10045</attribute>
          <attribute name="ImpactFromFireDangerIndexRating" class="java.lang.String" >0</attribute>
          <attribute name="ImpactFromImmersionInSmoke" class="java.lang.String" >0.2</attribute>
          <attribute name="ImpactFromMessageAdvice" class="java.lang.String" >0.088</attribute>
          <attribute name="ImpactFromMessageEmergencyWarning" class="java.lang.String" >0.313</attribute>
          <attribute name="ImpactFromMessageEvacuateNow" class="java.lang.String" >0.311</attribute>
          <attribute name="ImpactFromMessageRespondersAttending" class="java.lang.String" >-0.1</attribute>
          <attribute name="ImpactFromMessageWatchAndAct" class="java.lang.String" >0.163</attribute>
          <attribute name="ImpactFromSocialMessage" class="java.lang.String" >0.4</attribute>
          <attribute name="ImpactFromVisibleEmbers" class="java.lang.String" >0.4</attribute>
          <attribute name="ImpactFromVisibleFire" class="java.lang.String" >0.5</attribute>
          <attribute name="ImpactFromVisibleResponders" class="java.lang.String" >0.3</attribute>
          <attribute name="ImpactFromVisibleSmoke" class="java.lang.String" >0.1</attribute>
          <attribute name="InvacLocationPreference" class="java.lang.String" >Castlemaine,252140,5894312</attribute>
          <attribute name="LagTimeInMinsForFinalResponse" class="java.lang.String" >22.3</attribute>
          <attribute name="LagTimeInMinsForInitialResponse" class="java.lang.String" >12.08</attribute>
          <attribute name="PrimaryFamilyType" class="java.lang.String" >LONE_PERSON</attribute>
          <attribute name="ResponseThresholdFinal" class="java.lang.String" >0.58</attribute>
          <attribute name="ResponseThresholdInitial" class="java.lang.String" >0.26</attribute>
          <attribute name="SA1_7DIGCODE" class="java.lang.String" >2102818</attribute>
          <attribute name="SA2_MAINCODE" class="java.lang.String" >202021028</attribute>
          <attribute name="WillGoHomeAfterVisitingDependents" class="java.lang.String" >true</attribute>
          <attribute name="WillGoHomeBeforeLeaving" class="java.lang.String" >true</attribute>
          <attribute name="WillStay" class="java.lang.String" >false</attribute>
      </attributes>-->
        <plan selected="yes">
            <activity type="home" x="476438.79189037136" y="5552124.30651799" end_time="23:59:59" >
            </activity>
            <leg mode="car">
            </leg>
            <activity type="home" x="476438.79189037136" y="5552124.30651799" >
            </activity>
        </plan>

    </person>

    <!-- ====================================================================== -->

    <person id="4">
    <!--   <attributes>
          <attribute name="Age" class="java.lang.String" >77</attribute>
          <attribute name="AgentId" class="java.lang.String" >202021028P6357</attribute>
          <attribute name="Archetype" class="java.lang.String" >Worried.Waverer</attribute>
          <attribute name="Archetypes.Age" class="java.lang.String" >75 years +</attribute>
          <attribute name="Archetypes.Household" class="java.lang.String" >Ssingle person without dependents living at home</attribute>
          <attribute name="BDIAgentType" class="java.lang.String" >io.github.agentsoz.ees.agents.archetype.WorriedWaverer</attribute>
          <attribute name="EZI_ADD" class="java.lang.String" >47B CHURCH STREET MALDON 3463</attribute>
          <attribute name="EvacLocationPreference" class="java.lang.String" >Elphinstone,262869,5890813</attribute>
          <attribute name="Gender" class="java.lang.String" >Male</attribute>
          <attribute name="Geographical.Coordinate" class="java.lang.String" >[8.67315, 50.12475]</attribute>
          <attribute name="HasDependents" class="java.lang.String" >false</attribute>
          <attribute name="HasDependentsAtLocation" class="java.lang.String" ></attribute>
          <attribute name="HouseholdId" class="java.lang.String" >202021028H67</attribute>
          <attribute name="Id" class="java.lang.String" >10052</attribute>
          <attribute name="ImpactFromFireDangerIndexRating" class="java.lang.String" >0</attribute>
          <attribute name="ImpactFromImmersionInSmoke" class="java.lang.String" >0.2</attribute>
          <attribute name="ImpactFromMessageAdvice" class="java.lang.String" >0.088</attribute>
          <attribute name="ImpactFromMessageEmergencyWarning" class="java.lang.String" >0.313</attribute>
          <attribute name="ImpactFromMessageEvacuateNow" class="java.lang.String" >0.311</attribute>
          <attribute name="ImpactFromMessageRespondersAttending" class="java.lang.String" >-0.1</attribute>
          <attribute name="ImpactFromMessageWatchAndAct" class="java.lang.String" >0.163</attribute>
          <attribute name="ImpactFromSocialMessage" class="java.lang.String" >0.4</attribute>
          <attribute name="ImpactFromVisibleEmbers" class="java.lang.String" >0.4</attribute>
          <attribute name="ImpactFromVisibleFire" class="java.lang.String" >0.5</attribute>
          <attribute name="ImpactFromVisibleResponders" class="java.lang.String" >0.3</attribute>
          <attribute name="ImpactFromVisibleSmoke" class="java.lang.String" >0.1</attribute>
          <attribute name="InvacLocationPreference" class="java.lang.String" >Castlemaine,252140,5894312</attribute>
          <attribute name="LagTimeInMinsForFinalResponse" class="java.lang.String" >16.91</attribute>
          <attribute name="LagTimeInMinsForInitialResponse" class="java.lang.String" >10.73</attribute>
          <attribute name="PrimaryFamilyType" class="java.lang.String" >LONE_PERSON</attribute>
          <attribute name="ResponseThresholdFinal" class="java.lang.String" >0.55</attribute>
          <attribute name="ResponseThresholdInitial" class="java.lang.String" >0.42</attribute>
          <attribute name="SA1_7DIGCODE" class="java.lang.String" >2102817</attribute>
          <attribute name="SA2_MAINCODE" class="java.lang.String" >202021028</attribute>
          <attribute name="WillGoHomeAfterVisitingDependents" class="java.lang.String" >true</attribute>
          <attribute name="WillGoHomeBeforeLeaving" class="java.lang.String" >true</attribute>
          <attribute name="WillStay" class="java.lang.String" >false</attribute>
      </attributes>-->
        <plan selected="yes">
            <activity type="home" x="476500.76932398824" y="5552798.971484745" end_time="23:59:59" >
            </activity>
            <leg mode="car">
            </leg>
            <activity type="home" x="476500.76932398824" y="5552798.971484745" >
            </activity>
        </plan>
    </person>

    <!-- ====================================================================== -->

    <person id="5">
    <!--    <attributes>
           <attribute name="Age" class="java.lang.String" >84</attribute>
           <attribute name="AgentId" class="java.lang.String" >202021028P6365</attribute>
           <attribute name="Archetype" class="java.lang.String" >Worried.Waverer</attribute>
           <attribute name="Archetypes.Age" class="java.lang.String" >75 years +</attribute>
           <attribute name="Archetypes.Household" class="java.lang.String" >Ssingle person without dependents living at home</attribute>
           <attribute name="BDIAgentType" class="java.lang.String" >io.github.agentsoz.ees.agents.archetype.WorriedWaverer</attribute>
           <attribute name="EZI_ADD" class="java.lang.String" >165 HIGH STREET MALDON 3463</attribute>
           <attribute name="EvacLocationPreference" class="java.lang.String" >Elphinstone,262869,5890813</attribute>
           <attribute name="Gender" class="java.lang.String" >Male</attribute>
           <attribute name="Geographical.Coordinate" class="java.lang.String" >[8.66338, 50.13037]</attribute>
           <attribute name="HasDependents" class="java.lang.String" >false</attribute>
           <attribute name="HasDependentsAtLocation" class="java.lang.String" ></attribute>
           <attribute name="HouseholdId" class="java.lang.String" >202021028H75</attribute>
           <attribute name="Id" class="java.lang.String" >10054</attribute>
           <attribute name="ImpactFromFireDangerIndexRating" class="java.lang.String" >0</attribute>
           <attribute name="ImpactFromImmersionInSmoke" class="java.lang.String" >0.2</attribute>
           <attribute name="ImpactFromMessageAdvice" class="java.lang.String" >0.088</attribute>
           <attribute name="ImpactFromMessageEmergencyWarning" class="java.lang.String" >0.313</attribute>
           <attribute name="ImpactFromMessageEvacuateNow" class="java.lang.String" >0.311</attribute>
           <attribute name="ImpactFromMessageRespondersAttending" class="java.lang.String" >-0.1</attribute>
           <attribute name="ImpactFromMessageWatchAndAct" class="java.lang.String" >0.163</attribute>
           <attribute name="ImpactFromSocialMessage" class="java.lang.String" >0.4</attribute>
           <attribute name="ImpactFromVisibleEmbers" class="java.lang.String" >0.4</attribute>
           <attribute name="ImpactFromVisibleFire" class="java.lang.String" >0.5</attribute>
           <attribute name="ImpactFromVisibleResponders" class="java.lang.String" >0.3</attribute>
           <attribute name="ImpactFromVisibleSmoke" class="java.lang.String" >0.1</attribute>
           <attribute name="InvacLocationPreference" class="java.lang.String" >Castlemaine,252140,5894312</attribute>
           <attribute name="LagTimeInMinsForFinalResponse" class="java.lang.String" >17</attribute>
           <attribute name="LagTimeInMinsForInitialResponse" class="java.lang.String" >13.21</attribute>
           <attribute name="PrimaryFamilyType" class="java.lang.String" >LONE_PERSON</attribute>
           <attribute name="ResponseThresholdFinal" class="java.lang.String" >0.6</attribute>
           <attribute name="ResponseThresholdInitial" class="java.lang.String" >0.36</attribute>
           <attribute name="SA1_7DIGCODE" class="java.lang.String" >2102817</attribute>
           <attribute name="SA2_MAINCODE" class="java.lang.String" >202021028</attribute>
           <attribute name="WillGoHomeAfterVisitingDependents" class="java.lang.String" >true</attribute>
           <attribute name="WillGoHomeBeforeLeaving" class="java.lang.String" >true</attribute>
           <attribute name="WillStay" class="java.lang.String" >false</attribute>
       </attributes>-->
            <plan selected="yes">
                <activity type="home" x="476538.9427888916" y="5553324.827033389" end_time="23:59:59" >
                </activity>
                <leg mode="car">
                </leg>
                <activity type="home" x="476538.9427888916" y="5553324.827033389" >
                </activity>
            </plan>




    </person>

    <!-- ====================================================================== -->

    <person id="6">

    <!--   <attributes>
          <attribute name="Age" class="java.lang.String" >78</attribute>
          <attribute name="AgentId" class="java.lang.String" >202021028P6371</attribute>
          <attribute name="Archetype" class="java.lang.String" >Worried.Waverer</attribute>
          <attribute name="Archetypes.Age" class="java.lang.String" >75 years +</attribute>
          <attribute name="Archetypes.Household" class="java.lang.String" >Ssingle person without dependents living at home</attribute>
          <attribute name="BDIAgentType" class="java.lang.String" >io.github.agentsoz.ees.agents.archetype.WorriedWaverer</attribute>
          <attribute name="EZI_ADD" class="java.lang.String" >20 TEMPLETON STREET MALDON 3463</attribute>
          <attribute name="EvacLocationPreference" class="java.lang.String" >Elphinstone,262869,5890813</attribute>
          <attribute name="Gender" class="java.lang.String" >Male</attribute>
          <attribute name="Geographical.Coordinate" class="java.lang.String" >[8.67527, 50.12608]</attribute>
          <attribute name="HasDependents" class="java.lang.String" >false</attribute>
          <attribute name="HasDependentsAtLocation" class="java.lang.String" ></attribute>
          <attribute name="HouseholdId" class="java.lang.String" >202021028H81</attribute>
          <attribute name="Id" class="java.lang.String" >10055</attribute>
          <attribute name="ImpactFromFireDangerIndexRating" class="java.lang.String" >0</attribute>
          <attribute name="ImpactFromImmersionInSmoke" class="java.lang.String" >0.2</attribute>
          <attribute name="ImpactFromMessageAdvice" class="java.lang.String" >0.088</attribute>
          <attribute name="ImpactFromMessageEmergencyWarning" class="java.lang.String" >0.313</attribute>
          <attribute name="ImpactFromMessageEvacuateNow" class="java.lang.String" >0.311</attribute>
          <attribute name="ImpactFromMessageRespondersAttending" class="java.lang.String" >-0.1</attribute>
          <attribute name="ImpactFromMessageWatchAndAct" class="java.lang.String" >0.163</attribute>
          <attribute name="ImpactFromSocialMessage" class="java.lang.String" >0.4</attribute>
          <attribute name="ImpactFromVisibleEmbers" class="java.lang.String" >0.4</attribute>
          <attribute name="ImpactFromVisibleFire" class="java.lang.String" >0.5</attribute>
          <attribute name="ImpactFromVisibleResponders" class="java.lang.String" >0.3</attribute>
          <attribute name="ImpactFromVisibleSmoke" class="java.lang.String" >0.1</attribute>
          <attribute name="InvacLocationPreference" class="java.lang.String" >Castlemaine,252140,5894312</attribute>
          <attribute name="LagTimeInMinsForFinalResponse" class="java.lang.String" >24.68</attribute>
          <attribute name="LagTimeInMinsForInitialResponse" class="java.lang.String" >16.03</attribute>
          <attribute name="PrimaryFamilyType" class="java.lang.String" >LONE_PERSON</attribute>
          <attribute name="ResponseThresholdFinal" class="java.lang.String" >0.71</attribute>
          <attribute name="ResponseThresholdInitial" class="java.lang.String" >0.51</attribute>
          <attribute name="SA1_7DIGCODE" class="java.lang.String" >2102810</attribute>
          <attribute name="SA2_MAINCODE" class="java.lang.String" >202021028</attribute>
          <attribute name="WillGoHomeAfterVisitingDependents" class="java.lang.String" >true</attribute>
          <attribute name="WillGoHomeBeforeLeaving" class="java.lang.String" >true</attribute>
          <attribute name="WillStay" class="java.lang.String" >false</attribute>
      </attributes>-->
        <plan selected="yes">
            <activity type="home" x="476619.6161561999" y="5552925.794018047" end_time="23:59:59" >
            </activity>
            <leg mode="car">
            </leg>
            <activity type="home" x="476619.6161561999" y="5552925.794018047" >
            </activity>
        </plan>

    </person>

    <!-- ====================================================================== -->

    <person id="7">

        <!--   <attributes>
              <attribute name="Age" class="java.lang.String" >78</attribute>
              <attribute name="AgentId" class="java.lang.String" >202021028P6371</attribute>
              <attribute name="Archetype" class="java.lang.String" >Worried.Waverer</attribute>
              <attribute name="Archetypes.Age" class="java.lang.String" >75 years +</attribute>
              <attribute name="Archetypes.Household" class="java.lang.String" >Ssingle person without dependents living at home</attribute>